FoamFile
{
    version     2.0;
    format      ascii;
    class       dictionary;
    object      decomposeParDict;
}
// * * * * * * * * * * * * * * * * * * * * * * * * * * * * * * * * * * * * * //

numberOfSubdomains  9;

method  hierarchical;

coeffs
{
    n   (3 3 1);
}


// ************************************************************************* //
